
**** 01/12/25 16:46:20 ********* PSpice 9.2 (Mar 2000) ******** ID# 1 ********

 ** Profile: "SCHEMATIC1-p4_sim"  [ C:\Users\Public\Music\p4-SCHEMATIC1-p4_sim.sim ] 


 ****     CIRCUIT DESCRIPTION


******************************************************************************




** Creating circuit file "p4-SCHEMATIC1-p4_sim.sim.cir" 
** WARNING: THIS AUTOMATICALLY GENERATED FILE MAY BE OVERWRITTEN BY SUBSEQUENT SIMULATIONS

*Libraries: 
* Local Libraries :
.LIB ".\p4.lib" 
* From [PSPICE NETLIST] section of C:\Program Files\Orcad\PSpice\PSpice.ini file:
.lib "nom.lib" 

*Analysis directives: 
.PROBE V(*) I(*) W(*) D(*) NOISE(*) 
.INC ".\p4-SCHEMATIC1.net" 



**** INCLUDING p4-SCHEMATIC1.net ****
* source P4
Q_Q1         N00618 VIN N04361 BC368 
R_RC         N00618 N00892  0.75k  
R_RE1         N00801 N04361  5  
R_RE2         0 N00801  1k  
Q_Q2         BC368 
-------------------$
ERROR -- Missing node
V_Vs         N00877 0 DC 0Vdc AC 1Vac 
R_RB1         VIN N00892  200k  
R_RB2         0 VIN  800k  
Q_Q3         BC369 
-------------------$
ERROR -- Missing node
R_RL         0 VOUT  10k  
R_Rs         N00877 N00850  100  
C_C1         N00850 VIN  1u  
V_VCC         N00892 0 6Vdc
C_C2         N00618 VOUT  1u  
C_C3         N00801 0  1u  

**** RESUMING p4-SCHEMATIC1-p4_sim.sim.cir ****
.END
